tests/data/power_flow/pandapower/components/symmetric/transformer/sym_output.json
{
  "node": [
    {
      "id": 1,
      "u_pu": 0.9999996894239709,
      "u": 10499.996738951693,
      "u_angle": -1.0853603087758396e-06
    },
    {
      "id": 2,
      "u_pu": 1.0523414092654093,
      "u": 420.9365637061637,
      "u_angle": 0.5226677853669105
    }
  ],
  "sym_load": [
    {
      "id": 6,
      "p": 10000.0,
      "q": 2000.0
    }
  ],
  "transformer": [
    {
      "id": 3,
      "loading": 0.011289213047437975,
      "p_from": 11108.769383438601,
      "q_from": 2010.3666372134498,
      "s_from": 11289.213047437974,
      "p_to": -9999.999999999876,
      "q_to": -2000.0000000038697,
      "s_to": 10198.039027186207
    },
    {
      "id": 4,
      "loading": 0.0,
      "p_from": 0.0,
      "q_from": 0.0,
      "s_from": 0.0,
      "p_to": 0.0,
      "q_to": 0.0,
      "s_to": 0.0
    },
    {
      "id": 5,
      "loading": 0.0,
      "p_from": 0.0,
      "q_from": 0.0,
      "s_from": 0.0,
      "p_to": 0.0,
      "q_to": 0.0,
      "s_to": 0.0
    },
    {
      "id": 8,
      "loading": 0.0,
      "p_from": 0.0,
      "q_from": 0.0,
      "s_from": 0.0,
      "p_to": 0.0,
      "q_to": 0.0,
      "s_to": 0.0
    }
  ]
}