tests/data/power_flow/pandapower/components/symmetric/transformer/sym_output_batch.json
{
  "version": "1.0",
  "type": "sym_output",
  "is_batch": true,
  "attributes": {},
  "data": [
    {
      "node": [
        {
          "id": 1,
          "u_pu": 0.9999963795017239,
          "u": 10499.9619847681,
          "u_angle": -9.767968793384753e-07
        },
        {
          "id": 2,
          "u_pu": 1.0507669194426916,
          "u": 420.30676777707663,
          "u_angle": 0.5227163078432251
        }
      ],
      "sym_load": [
        {
          "id": 6,
          "p": 10000.0,
          "q": 2000.0
        }
      ],
      "transformer": [
        {
          "id": 3,
          "loading": 0.026957171170981512,
          "p_from": 12214.225597166804,
          "q_from": 24031.26652099535,
          "s_from": 26957.171170981514,
          "p_to": -11103.83522916251,
          "q_to": -12983.021856501493,
          "s_to": 17083.735344554654
        },
        {
          "id": 4,
          "loading": 0.011077483498758827,
          "p_from": 1107.7483498742154,
          "q_from": 11021.956916021085,
          "s_from": 11077.483498758827,
          "p_to": 0.0,
          "q_to": 0.0,
          "s_to": 0.0
        },
        {
          "id": 5,
          "loading": 0.011038352291606103,
          "p_from": 0.0,
          "q_from": 0.0,
          "s_from": 0.0,
          "p_to": 1103.8352291585525,
          "q_to": 10983.02185650535,
          "s_to": 11038.352291606103
        },
        {
          "id": 8,
          "loading": 0.0,
          "p_from": 0.0,
          "q_from": 0.0,
          "s_from": 0.0,
          "p_to": 0.0,
          "q_to": 0.0,
          "s_to": 0.0
        }
      ]
    },
    {
      "node": [
        {
          "id": 1,
          "u_pu": 0.9999964483096867,
          "u": 10499.96270725171,
          "u_angle": -9.767624930157878e-07
        },
        {
          "id": 2,
          "u_pu": 1.0398155329112708,
          "u": 415.92621316450834,
          "u_angle": 0.5226976474524601
        }
      ],
      "sym_load": [
        {
          "id": 6,
          "p": 10000.0,
          "q": 2000.0
        }
      ],
      "transformer": [
        {
          "id": 3,
          "loading": 0.026530231338346033,
          "p_from": 12168.375862147393,
          "q_from": 23575.067417584763,
          "s_from": 26530.23133834603,
          "p_to": -11080.946173485496,
          "q_to": -12755.278628028222,
          "s_to": 16896.28660322487
        },
        {
          "id": 4,
          "loading": 0.010847906069274098,
          "p_from": 1084.7906069279973,
          "q_from": 10793.530257840323,
          "s_from": 10847.906069274099,
          "p_to": 0.0,
          "q_to": 0.0,
          "s_to": 0.0
        },
        {
          "id": 5,
          "loading": 0.010809461734822896,
          "p_from": 0.0,
          "q_from": 0.0,
          "s_from": 0.0,
          "p_to": 1080.9461734823649,
          "q_to": 10755.278628033504,
          "s_to": 10809.461734822897
        },
        {
          "id": 8,
          "loading": 0.0,
          "p_from": 0.0,
          "q_from": 0.0,
          "s_from": 0.0,
          "p_to": 0.0,
          "q_to": 0.0,
          "s_to": 0.0
        }
      ]
    },
    {
      "node": [
        {
          "id": 1,
          "u_pu": 0.9999965149997446,
          "u": 10499.963407497318,
          "u_angle": -9.767291650750873e-07
        },
        {
          "id": 2,
          "u_pu": 1.0290898836888036,
          "u": 411.63595347552143,
          "u_angle": 0.52267879144518
        }
      ],
      "sym_load": [
        {
          "id": 6,
          "p": 10000.0,
          "q": 2000.0
        }
      ],
      "transformer": [
        {
          "id": 3,
          "loading": 0.02611745617672052,
          "p_from": 12123.937647681587,
          "q_from": 23132.91276640376,
          "s_from": 26117.45617672052,
          "p_to": -11058.7613645254,
          "q_to": -12534.54256597055,
          "s_to": 16715.590335242345
        },
        {
          "id": 4,
          "loading": 0.010625392248816614,
          "p_from": 1062.5392248815606,
          "q_from": 10572.131801902598,
          "s_from": 10625.392248816614,
          "p_to": 0.0,
          "q_to": 0.0,
          "s_to": 0.0
        },
        {
          "id": 5,
          "loading": 0.010587613645254113,
          "p_from": 0.0,
          "q_from": 0.0,
          "s_from": 0.0,
          "p_to": 1058.7613645260415,
          "q_to": 10534.542565966405,
          "s_to": 10587.613645254114
        },
        {
          "id": 8,
          "loading": 0.0,
          "p_from": 0.0,
          "q_from": 0.0,
          "s_from": 0.0,
          "p_to": 0.0,
          "q_to": 0.0,
          "s_to": 0.0
        }
      ]
    },
    {
      "node": [
        {
          "id": 1,
          "u_pu": 0.9999965796578981,
          "u": 10499.96408640793,
          "u_angle": -9.76696852563677e-07
        },
        {
          "id": 2,
          "u_pu": 1.0185830615237286,
          "u": 407.43322460949145,
          "u_angle": 0.5226597398145693
        }
      ],
      "sym_load": [
        {
          "id": 6,
          "p": 10000.0,
          "q": 2000.0
        }
      ],
      "transformer": [
        {
          "id": 3,
          "loading": 0.025718265714824648,
          "p_from": 12080.853644743882,
          "q_from": 22704.232349775742,
          "s_from": 25718.265714824644,
          "p_to": -11037.252204968016,
          "q_to": -12320.529130546754,
          "s_to": 16541.35346012298
        },
        {
          "id": 4,
          "loading": 0.010409655127075484,
          "p_from": 1040.965512706749,
          "q_from": 10357.4760760527,
          "s_from": 10409.655127075483,
          "p_to": 0.0,
          "q_to": 0.0,
          "s_to": 0.0
        },
        {
          "id": 5,
          "loading": 0.010372522049838483,
          "p_from": 0.0,
          "q_from": 0.0,
          "s_from": 0.0,
          "p_to": 1037.25220498519,
          "q_to": 10320.529130700561,
          "s_to": 10372.522049838482
        },
        {
          "id": 8,
          "loading": 0.0,
          "p_from": 0.0,
          "q_from": 0.0,
          "s_from": 0.0,
          "p_to": 0.0,
          "q_to": 0.0,
          "s_to": 0.0
        }
      ]
    },
    {
      "node": [
        {
          "id": 1,
          "u_pu": 0.9999966423657967,
          "u": 10499.964744840865,
          "u_angle": -9.766655146920733e-07
        },
        {
          "id": 2,
          "u_pu": 1.008288435361977,
          "u": 403.3153741447908,
          "u_angle": 0.5226404925537373
        }
      ],
      "sym_load": [
        {
          "id": 6,
          "p": 10000.0,
          "q": 2000.0
        }
      ],
      "transformer": [
        {
          "id": 3,
          "loading": 0.02533210884419739,
          "p_from": 12039.069424034755,
          "q_from": 22288.484602985805,
          "s_from": 25332.10884419739,
          "p_to": -11016.391534512282,
          "q_to": -12112.968080187396,
          "s_to": 16373.297717726644
        },
        {
          "id": 4,
          "loading": 0.010200422521525143,
          "p_from": 1020.042252153904,
          "q_from": 10149.29226209681,
          "s_from": 10200.422521525143,
          "p_to": 0.0,
          "q_to": 0.0,
          "s_to": 0.0
        },
        {
          "id": 5,
          "loading": 0.010163915345098066,
          "p_from": 0.0,
          "q_from": 0.0,
          "s_from": 0.0,
          "p_to": 1016.3915345105306,
          "q_to": 10112.968080187697,
          "s_to": 10163.915345098063
        },
        {
          "id": 8,
          "loading": 0.0,
          "p_from": 0.0,
          "q_from": 0.0,
          "s_from": 0.0,
          "p_to": 0.0,
          "q_to": 0.0,
          "s_to": 0.0
        }
      ]
    },
    {
      "node": [
        {
          "id": 1,
          "u_pu": 0.9999967032010865,
          "u": 10499.965383611407,
          "u_angle": -9.766351126300212e-07
        },
        {
          "id": 2,
          "u_pu": 0.9981996394010554,
          "u": 399.2798557604222,
          "u_angle": 0.522621049655631
        }
      ],
      "sym_load": [
        {
          "id": 6,
          "p": 10000.0,
          "q": 2000.0
        }
      ],
      "transformer": [
        {
          "id": 3,
          "loading": 0.024958461479368976,
          "p_from": 11998.533251469915,
          "q_from": 21885.154768255943,
          "s_from": 24958.461479368976,
          "p_to": -10996.153531533604,
          "q_to": -11911.602482768005,
          "s_to": 16211.158693830119
        },
        {
          "id": 4,
          "loading": 0.009997435329341596,
          "p_from": 999.7435329339052,
          "q_from": 9947.322555980798,
          "s_from": 9997.435329341597,
          "p_to": 0.0,
          "q_to": 0.0,
          "s_to": 0.0
        },
        {
          "id": 5,
          "loading": 0.009961535386496695,
          "p_from": 0.0,
          "q_from": 0.0,
          "s_from": 0.0,
          "p_to": 996.1535386472133,
          "q_to": 9911.602563857496,
          "s_to": 9961.535386496695
        },
        {
          "id": 8,
          "loading": 0.0,
          "p_from": 0.0,
          "q_from": 0.0,
          "s_from": 0.0,
          "p_to": 0.0,
          "q_to": 0.0,
          "s_to": 0.0
        }
      ]
    },
    {
      "node": [
        {
          "id": 1,
          "u_pu": 0.9999967622375064,
          "u": 10499.966003493817,
          "u_angle": -9.766056095270506e-07
        },
        {
          "id": 2,
          "u_pu": 0.98831055989211,
          "u": 395.32422395684404,
          "u_angle": 0.522601411113478
        }
      ],
      "sym_load": [
        {
          "id": 6,
          "p": 10000.0,
          "q": 2000.0
        }
      ],
      "transformer": [
        {
          "id": 3,
          "loading": 0.024596825580182467,
          "p_from": 11959.195990495433,
          "q_from": 21493.753973720748,
          "s_from": 24596.825580182467,
          "p_to": -10976.513695387897,
          "q_to": -11716.188590721655,
          "s_to": 16054.68554654355
        },
        {
          "id": 4,
          "loading": 0.009800447515080331,
          "p_from": 980.0447515093671,
          "q_from": 9751.322155527587,
          "s_from": 9800.447515080332,
          "p_to": 0.0,
          "q_to": 0.0,
          "s_to": 0.0
        },
        {
          "id": 5,
          "loading": 0.009765136953876093,
          "p_from": 0.0,
          "q_from": 0.0,
          "s_from": 0.0,
          "p_to": 976.513695385128,
          "q_to": 9716.188590732569,
          "s_to": 9765.136953876094
        },
        {
          "id": 8,
          "loading": 0.0,
          "p_from": 0.0,
          "q_from": 0.0,
          "s_from": 0.0,
          "p_to": 0.0,
          "q_to": 0.0,
          "s_to": 0.0
        }
      ]
    },
    {
      "node": [
        {
          "id": 1,
          "u_pu": 0.9999968195452897,
          "u": 10499.966605225542,
          "u_angle": -9.765769703744563e-07
        },
        {
          "id": 2,
          "u_pu": 0.9786153229167887,
          "u": 391.4461291667155,
          "u_angle": 0.522581576919895
        }
      ],
      "sym_load": [
        {
          "id": 6,
          "p": 10000.0,
          "q": 2000.0
        }
      ],
      "transformer": [
        {
          "id": 3,
          "loading": 0.02424672642871003,
          "p_from": 11921.010828458786,
          "q_from": 21113.816408609644,
          "s_from": 24246.72642871003,
          "p_to": -10957.448647869986,
          "q_to": -11526.493763038132,
          "s_to": 15903.6391854212
        },
        {
          "id": 4,
          "loading": 0.009609224912592196,
          "p_from": 960.9224912594595,
          "q_from": 9561.058068361168,
          "s_from": 9609.224912592195,
          "p_to": 0.0,
          "q_to": 0.0,
          "s_to": 0.0
        },
        {
          "id": 5,
          "loading": 0.00957448647910263,
          "p_from": 0.0,
          "q_from": 0.0,
          "s_from": 0.0,
          "p_to": 957.4486479092927,
          "q_to": 9526.493763454408,
          "s_to": 9574.486479102628
        },
        {
          "id": 8,
          "loading": 0.0,
          "p_from": 0.0,
          "q_from": 0.0,
          "s_from": 0.0,
          "p_to": 0.0,
          "q_to": 0.0,
          "s_to": 0.0
        }
      ]
    },
    {
      "node": [
        {
          "id": 1,
          "u_pu": 0.9999968751912025,
          "u": 10499.967189507626,
          "u_angle": -9.765491616724489e-07
        },
        {
          "id": 2,
          "u_pu": 0.9691082826141507,
          "u": 387.6433130456603,
          "u_angle": 0.5225615470677824
        }
      ],
      "sym_load": [
        {
          "id": 6,
          "p": 10000.0,
          "q": 2000.0
        }
      ],
      "transformer": [
        {
          "id": 3,
          "loading": 0.02390771247940191,
          "p_from": 11883.933262156334,
          "q_from": 20744.89928195276,
          "s_from": 23907.71247940191,
          "p_to": -10938.936188049893,
          "q_to": -11342.297113579183,
          "s_to": 15757.792635357728
        },
        {
          "id": 4,
          "loading": 0.009423544885393088,
          "p_from": 942.354488537715,
          "q_from": 9376.308773976625,
          "s_from": 9423.544885393088,
          "p_to": 0.0,
          "q_to": 0.0,
          "s_to": 0.0
        },
        {
          "id": 5,
          "loading": 0.009389361880535742,
          "p_from": 0.0,
          "q_from": 0.0,
          "s_from": 0.0,
          "p_to": 938.9361880534323,
          "q_to": 9342.297113580866,
          "s_to": 9389.361880535742
        },
        {
          "id": 8,
          "loading": 0.0,
          "p_from": 0.0,
          "q_from": 0.0,
          "s_from": 0.0,
          "p_to": 0.0,
          "q_to": 0.0,
          "s_to": 0.0
        }
      ]
    },
    {
      "node": [
        {
          "id": 1,
          "u_pu": 0.9999969292388631,
          "u": 10499.967757008062,
          "u_angle": -9.765221516932188e-07
        },
        {
          "id": 2,
          "u_pu": 0.9597840102817943,
          "u": 383.91360411271774,
          "u_angle": 0.5225413215498746
        }
      ],
      "sym_load": [
        {
          "id": 6,
          "p": 10000.0,
          "q": 2000.0
        }
      ],
      "transformer": [
        {
          "id": 3,
          "loading": 0.023579353444272037,
          "p_from": 11847.92090552977,
          "q_from": 20386.58085766748,
          "s_from": 23579.353444272037,
          "p_to": -10920.955165147469,
          "q_to": -11163.388194589288,
          "s_to": 15616.929842394013
        },
        {
          "id": 4,
          "loading": 0.009243195127210642,
          "p_from": 924.31951272178,
          "q_from": 9196.863030299643,
          "s_from": 9243.195127210642,
          "p_to": 0.0,
          "q_to": 0.0,
          "s_to": 0.0
        },
        {
          "id": 5,
          "loading": 0.009209551651466377,
          "p_from": 0.0,
          "q_from": 0.0,
          "s_from": 0.0,
          "p_to": 920.9551651469835,
          "q_to": 9163.388194593535,
          "s_to": 9209.551651466378
        },
        {
          "id": 8,
          "loading": 0.0,
          "p_from": 0.0,
          "q_from": 0.0,
          "s_from": 0.0,
          "p_to": 0.0,
          "q_to": 0.0,
          "s_to": 0.0
        }
      ]
    },
    {
      "node": [
        {
          "id": 1,
          "u_pu": 0.9999969817488527,
          "u": 10499.968308362952,
          "u_angle": -9.764959101217187e-07
        },
        {
          "id": 2,
          "u_pu": 0.950637284021835,
          "u": 380.25491360873406,
          "u_angle": 0.5225209003588341
        }
      ],
      "sym_load": [
        {
          "id": 6,
          "p": 10000.0,
          "q": 2000.0
        }
      ],
      "transformer": [
        {
          "id": 3,
          "loading": 0.023261239212591264,
          "p_from": 11812.93338136565,
          "q_from": 20038.459387707695,
          "s_from": 23261.239212591263,
          "p_to": -10903.485430868175,
          "q_to": -10989.566533233012,
          "s_to": 15480.84516844961
        },
        {
          "id": 4,
          "loading": 0.009067973605015133,
          "p_from": 906.7973605028651,
          "q_from": 9022.51981700435,
          "s_from": 9067.973605015133,
          "p_to": 0.0,
          "q_to": 0.0,
          "s_to": 0.0
        },
        {
          "id": 5,
          "loading": 0.009034854308686807,
          "p_from": 0.0,
          "q_from": 0.0,
          "s_from": 0.0,
          "p_to": 903.4854308681392,
          "q_to": 8989.566533232042,
          "s_to": 9034.854308686807
        },
        {
          "id": 8,
          "loading": 0.0,
          "p_from": 0.0,
          "q_from": 0.0,
          "s_from": 0.0,
          "p_to": 0.0,
          "q_to": 0.0,
          "s_to": 0.0
        }
      ]
    }
  ]
}
